data/33Bus-Modified/OpenDSS_Model/Lines.txt
!LINE CODE FOR 33 BUS RADIAL DISTRIBUTION SYSTEM
New Line.1 Phases=3 Bus1=1 Bus2=2 R1=0.0922 X1=0.0470
New Line.2 Phases=3 Bus1=2 Bus2=3 R1=0.4930 X1=0.2511
New Line.3 Phases=3 Bus1=3 Bus2=4 R1=0.3660 X1=0.1864
New Line.4 Phases=3 Bus1=4 Bus2=5 R1=0.3811 X1=0.1941
New Line.5 Phases=3 Bus1=5 Bus2=6 R1=0.8190 X1=0.7070
New Line.6 Phases=3 Bus1=6 Bus2=7 R1=0.1872 X1=0.6188
New Line.7 Phases=3 Bus1=7 Bus2=8 R1=1.7114 X1=1.2351
New Line.8 Phases=3 Bus1=8 Bus2=9 R1=1.0300 X1=0.74
New Line.9 Phases=3 Bus1=9 Bus2=10 R1=1.0440 X1=0.74
New Line.10 Phases=3 Bus1=10 Bus2=11 R1=0.1966 X1=0.0650
New Line.11 Phases=3 Bus1=11 Bus2=12 R1=0.3744 X1=0.1238
New Line.12 Phases=3 Bus1=12 Bus2=13 R1=1.4680 X1=1.1550
New Line.13 Phases=3 Bus1=13 Bus2=14 R1=0.5416 X1=0.7129
New Line.14 Phases=3 Bus1=14 Bus2=15 R1=0.5910 X1=0.5260
New Line.15 Phases=3 Bus1=15 Bus2=16 R1=0.7463 X1=0.5450
New Line.16 Phases=3 Bus1=16 Bus2=17 R1=1.2890 X1=1.7210
New Line.17 Phases=3 Bus1=17 Bus2=18 R1=0.7320 X1=0.5740
New Line.18 Phases=3 Bus1=2 Bus2=19 R1=0.1640 X1=0.1565
New Line.19 Phases=3 Bus1=19 Bus2=20 R1=1.5042 X1=1.3554
New Line.20 Phases=3 Bus1=20 Bus2=21 R1=0.4095 X1=0.4784
New Line.21 Phases=3 Bus1=21 Bus2=22 R1=0.7089 X1=0.9373
New Line.22 Phases=3 Bus1=3 Bus2=23 R1=0.4512 X1=0.3083
New Line.23 Phases=3 Bus1=23 Bus2=24 R1=0.8980 X1=0.7091
New Line.24 Phases=3 Bus1=24 Bus2=25 R1=0.8960 X1=0.7011
New Line.25 Phases=3 Bus1=6 Bus2=26 R1=0.2030 X1=0.1034
New Line.26 Phases=3 Bus1=26 Bus2=27 R1=0.2842 X1=0.1447
New Line.27 Phases=3 Bus1=27 Bus2=28 R1=1.0590 X1=0.9337
New Line.28 Phases=3 Bus1=28 Bus2=29 R1=0.8042 X1=0.7006
New Line.29 Phases=3 Bus1=29 Bus2=30 R1=0.5075 X1=0.2585
New Line.30 Phases=3 Bus1=30 Bus2=31 R1=0.9744 X1=0.9630
New Line.31 Phases=3 Bus1=31 Bus2=32 R1=0.3105 X1=0.3619
New Line.32 Phases=3 Bus1=32 Bus2=33 R1=0.3410 X1=0.5302

